omf/static/testFiles/1010 bus feeder/Hurricane Helene Demo/1010 bus feeder Hurricane Helene Demo.dss


!!!master.dss
clear
new object=circuit.feeder_rdt1262_dash_rhs2_1247x


! redirect vsource.dss
! redirect linecode.dss
! redirect loadshape.dss
! redirect line.dss
! redirect load.dss
! redirect transformer.dss
! redirect storage.dss
! redirect pvsystem.dss
! makebuslist
! buscoords buscoords.dss
! giscoords giscoords.dss


!!!loadshape.dss
new object=loadshape.gso_36_dot_2120__dash_79_dot_7183_25_135 npts=24 interval=1 mult=[0,0,0,0,0,0,0,0.06338,0.21979,0.319715,0.37863,0.407535,0.412285,0.385595,0.33247,0.26116,0.17636,0.08753,0.011045,0,0,0,0,0]
new object=loadshape.gso_36_dot_2120__dash_79_dot_7183_35_135 npts=24 interval=1 mult=[0,0,0,0,0,0,0,0.08078,0.26572,0.37352,0.429535,0.45088,0.446355,0.408905,0.34511,0.26417,0.17153,0.07964,0.01125,0,0,0,0,0]
new object=loadshape.gso_36_dot_2120__dash_79_dot_7183_15_225 npts=24 interval=1 mult=[0,0,0,0,0,0,0,0.0086,0.072565,0.152965,0.23041,0.294995,0.342825,0.364565,0.358555,0.329285,0.27539,0.19569,0.090175,0,0,0,0,0]
new object=loadshape.gso_36_dot_2120__dash_79_dot_7183_35_180 npts=24 interval=1 mult=[0,0,0,0,0,0,0,0.04788,0.1959,0.310915,0.39613,0.455855,0.493015,0.49668,0.46829,0.415245,0.336285,0.23096,0.10163,0,0,0,0,0]
new object=loadshape.gso_36_dot_2120__dash_79_dot_7183_15_180 npts=24 interval=1 mult=[0,0,0,0,0,0,0,0.02934,0.136125,0.22865,0.302075,0.355155,0.38794,0.391385,0.366455,0.31938,0.250965,0.163675,0.06303,0,0,0,0,0]
new object=loadshape.gso_36_dot_2120__dash_79_dot_7183_15_90 npts=24 interval=1 mult=[0,0,0,0,0,0,0,0.040775,0.14796,0.221165,0.266805,0.28958,0.292,0.26894,0.22437,0.16471,0.09591,0.03431,0.01075,0,0,0,0,0]
new object=loadshape.gso_36_dot_1751__dash_79_dot_7183_25_225 npts=24 interval=1 mult=[0,0,0,0,0,0,0,0.0081,0.06497,0.150215,0.238045,0.31437,0.37334,0.40657,0.4107,0.38906,0.338165,0.253095,0.12794,0,0,0,0,0]
new object=loadshape.gso_36_dot_2120__dash_79_dot_7183_15_270 npts=24 interval=1 mult=[0,0,0,0,0,0,0,0.0086,0.01682,0.074175,0.144145,0.207675,0.257975,0.287025,0.2918,0.275125,0.235585,0.171585,0.081705,0,0,0,0,0]
new object=loadshape.gso_36_dot_2120__dash_79_dot_7183_25_270 npts=24 interval=1 mult=[0,0,0,0,0,0,0,0.00834,0.01668,0.040275,0.096135,0.170395,0.23446,0.279855,0.30132,0.30021,0.272645,0.213005,0.11397,0,0,0,0,0]
new object=loadshape.gso_36_dot_2120__dash_79_dot_7183_45_270 npts=24 interval=1 mult=[0,0,0,0,0,0,0,0.00747,0.0182,0.023975,0.039495,0.084855,0.170535,0.244085,0.296305,0.325485,0.32337,0.27698,0.16796,0,0,0,0,0]
new object=loadshape.gso_36_dot_2120__dash_79_dot_7183_25_180 npts=24 interval=1 mult=[0,0,0,0,0,0,0,0.03914,0.16834,0.27358,0.354015,0.4112,0.44666,0.45027,0.423225,0.372475,0.297755,0.20008,0.083475,0,0,0,0,0]
new object=loadshape.gso_36_dot_1751__dash_79_dot_7183_35_270 npts=24 interval=1 mult=[0,0,0,0,0,0,0,0.00773,0.017235,0.02226,0.0602,0.12961,0.2053,0.265505,0.303215,0.317565,0.302725,0.249215,0.143165,0,0,0,0,0]
new object=loadshape.gso_36_dot_1751__dash_79_dot_7183_25_270 npts=24 interval=1 mult=[0,0,0,0,0,0,0,0.0081,0.016435,0.040445,0.0968,0.171195,0.234785,0.279985,0.301715,0.30062,0.27316,0.213705,0.1141,0,0,0,0,0]
new object=loadshape.gso_36_dot_1751__dash_79_dot_7183_35_135 npts=24 interval=1 mult=[0,0,0,0,0,0,0,0.084535,0.26626,0.373745,0.431015,0.45295,0.44668,0.408975,0.34543,0.26449,0.17191,0.08016,0.011245,0,0,0,0,0]
new object=loadshape.gso_36_dot_1751__dash_79_dot_7183_15_270 npts=24 interval=1 mult=[0,0,0,0,0,0,0,0.008355,0.016695,0.074415,0.144945,0.208685,0.258325,0.287175,0.2922,0.275535,0.23609,0.17226,0.08182,0,0,0,0,0]
new object=loadshape.gso_36_dot_2120__dash_79_dot_7183_45_135 npts=24 interval=1 mult=[0,0,0,0,0,0,0,0.09586,0.304045,0.416685,0.46832,0.481635,0.46806,0.42101,0.34842,0.26015,0.162275,0.06988,0.01136,0,0,0,0,0]
new object=loadshape.gso_36_dot_1751__dash_79_dot_7183_35_90 npts=24 interval=1 mult=[0,0,0,0,0,0,0,0.076565,0.22262,0.29457,0.31913,0.31207,0.280725,0.225435,0.153735,0.072845,0.024475,0.020005,0.011245,0,0,0,0,0]
new object=loadshape.gso_36_dot_2120__dash_79_dot_7183_35_90 npts=24 interval=1 mult=[0,0,0,0,0,0,0,0.07322,0.222135,0.294325,0.317975,0.310535,0.2804,0.22533,0.153405,0.072655,0.02432,0.01964,0.01125,0,0,0,0,0]
new object=loadshape.res_kw_933_pu npts=24 interval=1 mult=[0.0998412,0.0882835,0.0712845,0.076508,0.0800504,0.0866755,0.0918083,0.0960528,0.11485,0.111125,0.0976188,0.168727,0.130856,0.115003,0.132551,0.70988,0.294509,0.145522,0.167401,0.167908,0.177429,0.161068,0.132667,0.107401] qmult=[0.27545,0.252286,0.217981,0.22807,0.235003,0.25092,0.260675,0.27099,0.318164,0.311268,0.280447,0.41241,0.356006,0.318681,0.362068,0.828929,0.354345,0.38621,0.426274,0.413352,0.429758,0.405118,0.341788,0.293693]
new object=loadshape.res_kw_454_pu npts=24 interval=1 mult=[0.0764652,0.0753709,0.07622,0.124586,0.080713,0.0816858,0.227655,0.0901943,0.171094,0.0955351,0.0824929,0.107696,0.0801479,0.198986,0.126539,0.187942,0.204924,0.0814102,0.218511,0.178005,0.12161,0.183149,0.221881,0.0717956] qmult=[0.192606,0.191193,0.193335,0.293359,0.202614,0.203466,0.246172,0.216486,0.395471,0.23195,0.197158,0.251492,0.194661,0.444377,0.292957,0.42242,0.19216,0.193368,0.470713,0.375806,0.258894,0.387878,0.489447,0.179559]
new object=loadshape.res_kw_1094_pu npts=24 interval=1 mult=[0.459692,0.467342,0.680364,0.524792,0.543976,0.584562,0.60105,0.597617,0.483268,0.378062,0.340377,0.265226,0.252826,0.237952,0.215353,0.228846,0.380261,0.315773,0.349915,0.376292,0.453159,0.474505,0.496747,0.534945] qmult=[0.946326,0.936197,1,0.915939,0.905809,0.905809,0.926068,0.946326,0.956455,0.956455,0.946326,0.946304,0.934542,0.89937,0.847318,0.868358,1.06078,1.02736,1.04762,1.02736,1.01723,1.0071,0.986843,0.956455]
new object=loadshape.res_kw_621_pu npts=24 interval=1 mult=[0.0797971,0.0789921,0.078742,0.0783436,0.0776815,0.0783457,0.0804474,0.11617,0.160254,0.363919,0.410687,0.37483,0.21356,0.138793,0.359602,0.114007,0.122071,0.0846837,0.183931,0.155533,0.333937,0.137609,0.254342,0.103482] qmult=[0.146624,0.14532,0.14402,0.142719,0.141418,0.141423,0.144037,0.18061,0.228005,0.544454,0.617002,0.585145,0.340994,0.242607,0.564523,0.187854,0.196057,0.157049,0.307988,0.207438,0.433237,0.19586,0.379708,0.173536]
new object=loadshape.res_kw_366_pu npts=24 interval=1 mult=[0.42005,0.216001,0.38035,0.211176,0.198977,0.228889,0.26629,0.457584,0.463134,0.452147,0.534895,0.277748,0.356067,0.35862,0.446431,0.460177,0.497329,0.604736,0.682117,0.714319,0.377735,0.467664,0.402956,0.311096] qmult=[0.317304,0.250846,0.299704,0.244056,0.22546,0.248309,0.260972,0.372503,0.375904,0.368917,0.368372,0.277968,0.333531,0.334567,0.330232,0.394876,0.415215,0.471438,0.467298,0.444489,0.297383,0.348562,0.318803,0.311132]
new object=loadshape.res_kw_1258_pu npts=24 interval=1 mult=[0.126316,0.125594,0.126209,0.126547,0.150782,0.128326,0.131309,0.129968,0.120884,0.371649,0.369263,0.368178,0.371175,0.366571,0.251094,0.161448,0.369754,0.41201,0.438828,0.443418,0.445553,0.415208,0.404033,0.332524] qmult=[0.194661,0.194086,0.194573,0.19492,0.225184,0.196887,0.199781,0.197816,0.189326,0.480779,0.478745,0.480703,0.488285,0.482026,0.343451,0.232441,0.478425,0.518502,0.528967,0.516119,0.523798,0.50491,0.496906,0.445778]
new object=loadshape.res_kw_203_pu npts=24 interval=1 mult=[0.330961,0.321562,0.321674,0.274307,0.13534,0.275382,0.52673,0.454711,0.455919,0.396285,0.364851,0.360629,0.333953,0.343316,0.14899,0.33493,0.290384,0.224178,0.474938,0.484752,0.474262,0.449481,0.363059,0.329277] qmult=[0.538008,0.524068,0.524207,0.454101,0.247993,0.45192,0.579983,0.633666,0.65499,0.604347,0.569297,0.566052,0.536383,0.549945,0.263571,0.304005,0.458749,0.349136,0.671044,0.662304,0.653013,0.644177,0.560796,0.530917]
new object=loadshape.res_kw_75_pu npts=24 interval=1 mult=[0.463486,0.303879,0.333722,0.330819,0.334189,0.342819,0.360088,0.33558,0.288354,0.200303,0.283724,0.307057,0.121057,0.110577,0.0983688,0.124819,0.267253,0.265135,0.219039,0.259705,0.327431,0.422648,0.317261,0.434578] qmult=[0.34049,0.168092,0.159993,0.158878,0.157762,0.157762,0.1936,0.162224,0.213529,0.163339,0.512055,0.28135,0.158867,0.153543,0.147431,0.201379,0.565989,0.34892,0.258188,0.247666,0.295834,0.54307,0.215568,0.522185]
new object=loadshape.res_kw_229_pu npts=24 interval=1 mult=[0.110538,0.109015,0.111463,0.113539,0.114869,0.119438,0.174535,0.207396,0.191358,0.115352,0.112975,0.170968,0.16825,0.101254,0.156417,0.156568,0.169561,0.262949,0.116094,0.120749,0.131595,0.234369,0.345594,0.273312] qmult=[0.254921,0.252744,0.258343,0.263575,0.268073,0.277245,0.335767,0.391021,0.353227,0.274886,0.268694,0.315758,0.314628,0.239514,0.282817,0.279253,0.290499,0.45386,0.257585,0.2662,0.289424,0.373619,0.630364,0.599544]
new object=loadshape.res_kw_470_pu npts=24 interval=1 mult=[0.149119,0.709943,0.0940085,0.0881733,0.0902401,0.0904208,0.0891404,0.116143,0.115842,0.11849,0.114102,0.114485,0.115669,0.115882,0.144545,0.147809,0.124976,0.17706,0.193964,0.379725,0.183247,0.132595,0.123658,0.111249] qmult=[0.649395,0.861763,0.340239,0.315095,0.313321,0.31328,0.317065,0.376572,0.38177,0.392826,0.379784,0.383021,0.390247,0.390234,0.449144,0.460028,0.404027,0.512807,0.523279,0.499693,0.478299,0.39824,0.378092,0.371765]
new object=loadshape.res_kw_267_pu npts=24 interval=1 mult=[0.114251,0.114259,0.1188,0.115373,0.121327,0.140845,0.124497,0.20626,0.458778,0.196577,0.190944,0.18288,0.17779,0.174164,0.194368,0.216971,0.282396,0.214794,0.27181,0.290311,0.282386,0.251443,0.178758,0.149389] qmult=[0.151002,0.151592,0.159528,0.152627,0.162593,0.18505,0.161623,0.196228,0.203698,0.185225,0.180496,0.174951,0.173166,0.168443,0.193688,0.183579,0.206133,0.180278,0.196242,0.192477,0.195546,0.196315,0.175184,0.175471]
new object=loadshape.res_kw_409_pu npts=24 interval=1 mult=[0.153926,0.15618,0.159216,0.16285,0.170018,0.180838,0.265757,0.295709,0.403115,0.398109,0.403049,0.389021,0.504376,0.480176,0.360688,0.360738,0.266958,0.271736,0.272543,0.267624,0.355497,0.289052,0.266036,0.16244] qmult=[0.254245,0.257494,0.261075,0.266275,0.278253,0.29563,0.407153,0.4576,0.622203,0.639609,0.650074,0.631009,0.904694,0.650635,0.571217,0.566592,0.42389,0.415282,0.397962,0.377025,0.468201,0.400598,0.370601,0.262762]
new object=loadshape.res_kw_33_pu npts=24 interval=1 mult=[0.14234,0.1407,0.141368,0.141954,0.14722,0.152125,0.145362,0.17114,0.189704,0.178654,0.146125,0.168373,0.14188,0.137049,0.646938,0.683491,0.215579,0.515492,0.528202,0.538145,0.548077,0.50625,0.323454,0.223639] qmult=[0.238959,0.237286,0.238057,0.238985,0.251346,0.253554,0.242065,0.269743,0.2904,0.276417,0.239954,0.265426,0.237068,0.229325,0.628046,0.673717,0.318921,0.750779,0.736649,0.727426,0.749339,0.713414,0.527695,0.35148]
new object=loadshape.res_kw_1267_pu npts=24 interval=1 mult=[0.423762,0.100662,0.125318,0.162368,0.192782,0.24728,0.262346,0.255801,0.15409,0.112589,0.515294,0.372065,0.319223,0.274061,0.217269,0.154196,0.17186,0.279428,0.280693,0.334229,0.403701,0.662485,0.444359,0.468482] qmult=[0.0387911,0.0312646,0.0373671,0.0380778,0.0378401,0.0392213,0.0383156,0.0387911,0.0390288,0.0347954,0.0387911,0.0387911,0.0392665,0.0392665,0.0411082,0.0390288,0.039742,0.040693,0.0411685,0.040693,0.0404553,0.295666,0.039742,0.0393845]
new object=loadshape.res_kw_523_pu npts=24 interval=1 mult=[0.121758,0.123235,0.114774,0.116431,0.120859,0.129684,0.138323,0.157041,0.190015,0.21929,0.264911,0.229442,0.244118,0.211977,0.198236,0.187534,0.205785,0.208108,0.220989,0.223325,0.213547,0.195802,0.160739,0.138724] qmult=[0.244143,0.24694,0.230928,0.234356,0.24481,0.263865,0.283737,0.327027,0.411494,0.487068,0.509161,0.494271,0.512104,0.437493,0.403836,0.376197,0.378366,0.355126,0.343485,0.324109,0.311319,0.304786,0.270737,0.262845]
new object=loadshape.res_kw_549_pu npts=24 interval=1 mult=[0.0685524,0.0680741,0.0683164,0.0693441,0.154542,0.069159,0.194483,0.104129,0.1458,0.174392,0.169691,0.284183,0.176509,0.154171,0.149053,0.139044,0.109209,0.264156,0.276929,0.263679,0.25532,0.0907092,0.207197,0.0721969] qmult=[0.159069,0.158313,0.158558,0.160949,0.33101,0.168032,0.237277,0.247342,0.348233,0.423585,0.419601,0.635167,0.429375,0.370355,0.33609,0.294585,0.254467,0.346913,0.508488,0.500266,0.483841,0.189704,0.421788,0.164878]
new object=loadshape.res_kw_1220_pu npts=24 interval=1 mult=[0.0995925,0.10103,0.091236,0.0912173,0.0884332,0.0938666,0.0977924,0.103012,0.112838,0.0972949,0.0944444,0.10454,0.0913549,0.0902161,0.101024,0.156541,0.108533,0.159909,0.193351,0.191573,0.15903,0.149718,0.124897,0.09703] qmult=[0.227483,0.229812,0.208524,0.207927,0.200283,0.212112,0.218374,0.228734,0.250154,0.220222,0.215232,0.237439,0.211481,0.20935,0.2317,0.413026,0.246238,0.300025,0.361201,0.346915,0.322942,0.312472,0.264663,0.217911]
new object=loadshape.res_kw_47_pu npts=24 interval=1 mult=[0.0651102,0.0559291,0.0557685,0.0565714,0.0597849,0.0805043,0.0899056,0.110074,0.136678,0.160882,0.164937,0.159797,0.769873,0.746699,0.122977,0.114506,0.114119,0.106217,0.111606,0.11262,0.10723,0.197445,0.0894128,0.0584225] qmult=[0.162877,0.149432,0.150488,0.15226,0.162452,0.205062,0.213725,0.264949,0.355979,0.439389,0.45349,0.439557,0.874959,0.800191,0.324158,0.292677,0.269193,0.22367,0.206074,0.189777,0.180571,0.174646,0.169181,0.151908]
new object=loadshape.res_kw_324_pu npts=24 interval=1 mult=[0.125652,0.123975,0.12543,0.126167,0.098843,0.107719,0.368849,0.471103,0.47066,0.253678,0.164445,0.280475,0.301622,0.178158,0.289834,0.186135,0.224783,0.336007,0.249935,0.262903,0.366865,0.232242,0.235531,0.22] qmult=[0.270941,0.270065,0.273275,0.275881,0.214855,0.23233,0.463757,0.578925,0.57854,0.27737,0.278221,0.271717,0.587492,0.317796,0.552094,0.327888,0.337606,0.577855,0.333112,0.325798,0.564403,0.326103,0.362768,0.464997]
new object=loadshape.res_kw_1036_pu npts=24 interval=1 mult=[0.561232,0.551884,0.564874,0.578385,0.592392,0.610354,0.916398,0.551281,0.356179,0.282479,0.251323,0.205533,0.35441,0.211579,0.240536,0.417438,0.295402,0.336507,0.351989,0.383217,0.482612,0.510718,0.602192,0.556164] qmult=[0.391321,0.388621,0.385921,0.383222,0.380522,0.380522,0.408412,0.391321,0.39402,0.330621,0.302115,0.262484,0.414372,0.270628,0.293789,1.04901,0.343974,0.390485,0.410284,0.412918,0.410218,0.407518,0.711487,0.39402]
new object=loadshape.res_kw_1205_pu npts=24 interval=1 mult=[0.253052,0.22738,0.20765,0.205732,0.208787,0.213669,0.514866,0.384102,0.421979,0.471329,0.543937,0.434331,0.332061,0.58737,0.268315,0.588171,0.605763,0.650113,0.569409,0.618915,0.676863,0.638896,0.578867,0.521661] qmult=[0.326338,0.326198,0.303282,0.296296,0.300521,0.305534,0.643214,0.433095,0.532008,0.589475,0.673302,0.546882,0.435721,0.725273,0.361318,0.723999,0.737874,0.773489,0.690652,0.711883,0.757484,0.737626,0.689016,0.654069]
new object=loadshape.res_kw_1157_pu npts=24 interval=1 mult=[0.131018,0.130332,0.13309,0.139544,0.152265,0.153055,0.181547,0.230773,0.180707,0.134018,0.130866,0.12446,0.122486,0.160612,0.157771,0.165112,0.170501,0.19298,0.279682,0.272986,0.270404,0.246192,0.139032,0.140444] qmult=[0.308907,0.308271,0.314089,0.328685,0.35628,0.357041,0.395757,0.469563,0.389794,0.320742,0.313568,0.299509,0.295786,0.354211,0.346007,0.361654,0.365521,0.397201,0.497213,0.452019,0.45777,0.445601,0.320589,0.32612]
new object=loadshape.res_kw_710_pu npts=24 interval=1 mult=[0.19104,0.187774,0.187394,0.634391,0.182406,0.216473,0.204696,0.185876,0.0736303,0.141591,0.126056,0.0975622,0.0975059,0.0965783,0.0936554,0.0944193,0.104045,0.156453,0.160236,0.234892,0.176565,0.156119,0.246023,0.200396] qmult=[0.362507,0.358938,0.359005,0.581185,0.345949,0.375041,0.372847,0.349975,0.159606,0.250648,0.225201,0.190829,0.192827,0.190491,0.183709,0.184632,0.198544,0.259852,0.272559,0.390699,0.256475,0.242736,0.403835,0.370431]
new object=loadshape.res_kw_2_pu npts=24 interval=1 mult=[0.0350142,0.0299562,0.0296913,0.0293961,0.0290402,0.0291312,0.0391751,0.0431188,0.0438063,0.043699,0.0432379,0.043293,0.0303567,0.030478,0.030569,0.0326814,0.0473888,0.0701926,0.05761,0.0581199,0.0554851,0.0509909,0.0467656,0.0312699] qmult=[0.109821,0.0966348,0.095692,0.0947491,0.0938063,0.0938063,0.110345,0.118256,0.120404,0.120404,0.119461,0.120666,0.0994634,0.0994634,0.0994634,0.104833,0.129257,0.142582,0.140939,0.135438,0.130881,0.127528,0.119617,0.0999069]
new object=loadshape.res_kw_314_pu npts=24 interval=1 mult=[0.11598,0.110471,0.112481,0.113742,0.114262,0.117803,0.121068,0.125802,0.114248,0.107537,0.106155,0.102156,0.100256,0.0987652,0.0966139,0.0966045,0.100163,0.108358,0.11282,0.114684,0.119431,0.226496,0.206074,0.158292] qmult=[0.231723,0.221697,0.225368,0.227972,0.229869,0.235507,0.239478,0.247628,0.230081,0.221227,0.218161,0.210281,0.207279,0.203092,0.198004,0.197525,0.202166,0.213247,0.218439,0.22034,0.22779,0.312395,0.292103,0.279167]
new object=loadshape.res_kw_207_pu npts=24 interval=1 mult=[0.182663,0.0510339,0.050862,0.0506466,0.0503443,0.0504746,0.196998,0.203042,0.20389,0.072279,0.0685505,0.182011,0.182312,0.0511587,0.051289,0.0511606,0.106381,0.114032,0.115693,0.0957091,0.216379,0.0801378,0.0737483,0.183269] qmult=[0.37624,0.135779,0.135293,0.134806,0.13432,0.13432,0.403858,0.416587,0.419424,0.17945,0.168992,0.37624,0.377213,0.137239,0.137239,0.136752,0.197457,0.210405,0.20734,0.199314,0.431748,0.186585,0.173856,0.376727]
new object=loadshape.res_kw_250_pu npts=24 interval=1 mult=[0.0813176,0.0841167,0.0861766,0.0882498,0.0919752,0.0982702,0.107423,0.360469,0.20931,0.423617,0.422968,0.364977,0.361207,0.200295,0.184872,0.200221,0.169399,0.192695,0.374828,0.218403,0.362112,0.329962,0.18952,0.0961839] qmult=[0.156268,0.160262,0.162995,0.166218,0.173073,0.184334,0.201077,0.581123,0.375097,0.700525,0.702526,0.611981,0.606684,0.369941,0.34052,0.326061,0.305679,0.331503,0.582847,0.34015,0.548748,0.510186,0.312525,0.176252]
new object=loadshape.res_kw_1113_pu npts=24 interval=1 mult=[0.0400779,0.0399192,0.0399725,0.0399216,0.197652,0.197488,0.0410735,0.0567676,0.0934073,0.0446004,0.0400211,0.0798267,0.0398159,0.0397037,0.0395535,0.0394258,0.0407813,0.0429901,0.10575,0.255551,0.0700297,0.0654216,0.166035,0.195495] qmult=[0.0947428,0.0941302,0.09352,0.092908,0.389926,0.385616,0.0935461,0.118917,0.191507,0.103071,0.0947678,0.169697,0.0959845,0.095975,0.0959658,0.0953485,0.0972167,0.0997138,0.180169,0.458057,0.130286,0.126861,0.315658,0.382934]
new object=loadshape.res_kw_1270_pu npts=24 interval=1 mult=[0.362151,0.332213,0.331237,0.341224,0.326668,0.355045,0.415017,0.3453,0.334331,0.341551,0.31898,0.39123,0.393659,0.394553,0.465655,0.476186,0.509329,0.686113,0.763719,0.779386,0.741753,0.491801,0.522271,0.390082] qmult=[0.570978,0.528339,0.524621,0.544472,0.517181,0.548481,0.571326,0.532352,0.535876,0.563797,0.531756,0.604919,0.616205,0.616146,0.685515,0.69708,0.723799,0.87359,0.892736,0.850861,0.812825,0.667096,0.663279,0.583802]
new object=loadshape.res_kw_46_pu npts=24 interval=1 mult=[0.0405751,0.0424242,0.0420651,0.0411946,0.0430753,0.0878787,0.128675,0.140899,0.146214,0.17353,0.175981,0.131175,0.0892262,0.0748651,0.0669993,0.0604203,0.0849507,0.134643,0.0918386,0.0437578,0.111433,0.0431175,0.0428699,0.110715] qmult=[0.104985,0.110532,0.110398,0.106785,0.112564,0.212679,0.299362,0.329782,0.369781,0.430443,0.438317,0.349752,0.255911,0.213185,0.190218,0.170522,0.187722,0.301353,0.222284,0.111673,0.261242,0.107968,0.108316,0.260954]
new object=loadshape.res_kw_4_pu npts=24 interval=1 mult=[0.294977,0.101345,0.1018,0.102048,0.102398,0.236873,0.105439,0.313159,0.229455,0.126678,0.376436,0.497711,0.767792,0.31004,0.118059,0.110986,0.302371,0.313161,0.389538,0.409673,0.354288,0.408869,0.328689,0.301827] qmult=[0.611332,0.245167,0.245537,0.245644,0.246182,0.498599,0.251502,0.641456,0.484594,0.293316,0.929899,0.493729,0.58537,0.642176,0.279983,0.266483,0.626016,0.644157,0.654501,0.689252,0.697571,0.693859,0.657756,0.623279]
new object=loadshape.res_kw_245_pu npts=24 interval=1 mult=[0.0736973,0.073536,0.0742726,0.0748405,0.0732313,0.0761655,0.0904541,0.096371,0.091632,0.0912239,0.0789899,0.0706259,0.0897648,0.0688343,0.0653894,0.0629477,0.189316,0.099377,0.142176,0.187622,0.186804,0.272695,0.11891,0.0881058] qmult=[0.211602,0.211892,0.213482,0.21494,0.211889,0.217887,0.242448,0.254108,0.245909,0.247105,0.229001,0.208374,0.247414,0.203689,0.19497,0.18897,0.233031,0.255308,0.318451,0.375583,0.341703,0.329688,0.274783,0.240282]
new object=loadshape.res_kw_93_pu npts=24 interval=1 mult=[0.215608,0.195558,0.193189,0.19189,0.188959,0.201856,0.22372,0.238965,0.23024,0.223264,0.244296,0.219363,0.217092,0.217566,0.211898,0.207796,0.260129,0.589625,0.36018,0.466923,0.44715,0.396905,0.305341,0.195107] qmult=[0.376827,0.352409,0.350086,0.34734,0.344838,0.351598,0.360663,0.375222,0.370787,0.367403,0.401269,0.363883,0.365163,0.363315,0.351784,0.343905,0.416028,0.421539,0.437723,0.473757,0.462229,0.452659,0.395514,0.340468]
new object=loadshape.res_kw_205_pu npts=24 interval=1 mult=[0.113406,0.113298,0.115304,0.116544,0.116974,0.119943,0.122734,0.197592,0.221964,0.132667,0.100795,0.0984638,0.0977496,0.0959778,0.0936815,0.0949862,0.157871,0.210468,0.143184,0.333022,0.319751,0.213577,0.181009,0.119366] qmult=[0.34333,0.344659,0.349757,0.353421,0.356276,0.362469,0.366379,0.500799,0.456605,0.308926,0.319438,0.312081,0.311987,0.303989,0.295246,0.29761,0.382925,0.491405,0.418269,0.55082,0.544234,0.472908,0.407108,0.354294]
new object=loadshape.res_kw_96_pu npts=24 interval=1 mult=[0.367327,0.377053,0.395467,0.48909,0.420725,0.445087,0.46115,0.457083,0.397704,0.449895,0.352738,0.325829,0.351527,0.284278,0.258108,0.252166,0.324745,0.335446,0.436982,0.518177,0.435253,0.568268,0.425409,0.445935] qmult=[0.283542,0.287706,0.297625,0.356438,0.310652,0.326252,0.338359,0.338397,0.316453,0.28061,0.298792,0.284763,0.415492,0.265995,0.25058,0.249596,0.431672,0.312314,0.377982,0.722064,0.357924,0.746749,0.320881,0.332535]
new object=loadshape.res_kw_199_pu npts=24 interval=1 mult=[0.0605351,0.0586043,0.0588161,0.0863963,0.13766,0.163279,0.0692526,0.0967189,0.0609849,0.078961,0.0556804,0.0531035,0.0513318,0.0500164,0.0484959,0.184522,0.0730641,0.150909,0.225773,0.232879,0.195993,0.196804,0.0655413,0.0652141] qmult=[0.150262,0.145126,0.145222,0.205054,0.322042,0.36577,0.168746,0.22754,0.151865,0.192556,0.141449,0.135477,0.131934,0.128294,0.124362,0.121878,0.155529,0.284917,0.420986,0.419026,0.395356,0.411331,0.160649,0.160814]
new object=loadshape.res_kw_7_pu npts=24 interval=1 mult=[0.0681725,0.06561,0.0618428,0.0626617,0.0690938,0.080639,0.101798,0.252912,0.510574,0.264315,0.26975,0.605959,0.261825,0.228224,0.326051,0.181313,0.163843,0.486409,0.177238,0.177784,0.194778,0.168898,0.12873,0.0753654] qmult=[0.143432,0.140238,0.131981,0.13415,0.151852,0.172257,0.207984,0.298727,0.586565,0.533883,0.549891,0.720925,0.539806,0.456718,0.411119,0.358456,0.299885,0.562507,0.252249,0.228104,0.229718,0.218274,0.181574,0.146238]
new object=loadshape.res_kw_517_pu npts=24 interval=1 mult=[0.167559,0.144939,0.132311,0.137358,0.152691,0.171104,0.355691,0.335039,0.218415,0.29672,0.304886,0.238066,0.277624,0.116054,0.234249,0.338678,0.40843,0.415376,0.410751,0.411188,0.375741,0.342605,0.136806,0.137655] qmult=[0.217458,0.18998,0.175302,0.179815,0.192618,0.207951,0.425999,0.410258,0.270155,0.370651,0.377265,0.301956,0.350238,0.155861,0.294035,0.404851,0.465067,0.468469,0.461062,0.454022,0.430519,0.410188,0.178957,0.180809]
new object=loadshape.res_kw_1190_pu npts=24 interval=1 mult=[0.133456,0.132912,0.134431,0.134823,0.141801,0.154323,0.201338,0.224501,0.532331,0.642531,0.646242,0.628593,0.311867,0.259801,0.232875,0.211486,0.20821,0.236087,0.245483,0.252283,0.276228,0.284272,0.184268,0.141854] qmult=[0.256973,0.257452,0.260246,0.261754,0.281279,0.308846,0.370818,0.441647,0.937818,0.892919,0.906098,0.868778,0.689802,0.560986,0.49376,0.438607,0.363308,0.357775,0.321688,0.303966,0.307101,0.336363,0.276989,0.268344]
new object=loadshape.res_kw_263_pu npts=24 interval=1 mult=[0.155055,0.150879,0.150781,0.155649,0.149798,0.153684,0.15949,0.346416,0.35517,0.352895,0.341448,0.160326,0.158192,0.157997,0.145569,0.185283,0.355406,0.2073,0.2282,0.236296,0.34712,0.391687,0.360794,0.153181] qmult=[0.273125,0.267085,0.26674,0.274575,0.26561,0.269831,0.27303,0.554008,0.569666,0.567731,0.54829,0.258394,0.25702,0.256136,0.242299,0.323811,0.556039,0.301851,0.311122,0.308018,0.493387,0.58711,0.575553,0.268435]
new object=loadshape.res_kw_1276_pu npts=24 interval=1 mult=[0.206383,0.204344,0.206184,0.207712,0.208087,0.21152,0.248261,0.365551,0.277041,0.266554,0.293115,0.210313,0.210429,0.205176,0.202721,0.233937,0.254791,0.31647,0.418486,0.357407,0.355128,0.38324,0.304235,0.23246] qmult=[0.32121,0.319538,0.321552,0.323639,0.325172,0.328266,0.376889,0.408584,0.378088,0.367545,0.383739,0.315632,0.318775,0.310141,0.304586,0.312682,0.369036,0.404125,0.460585,0.4009,0.404572,0.433574,0.378112,0.343694]
new object=loadshape.res_kw_278_pu npts=24 interval=1 mult=[0.0756448,0.0801579,0.0919856,0.0926035,0.0971784,0.134957,0.138393,0.155018,0.184962,0.226015,0.226445,0.207809,0.210462,0.188269,0.176043,0.199932,0.22512,0.210891,0.232752,0.663022,0.167286,0.12166,0.0908882,0.0850731] qmult=[0.163765,0.171097,0.197327,0.197313,0.204431,0.278972,0.292411,0.352132,0.453146,0.569313,0.578916,0.54501,0.558047,0.468523,0.422229,0.433229,0.430227,0.375623,0.30503,0.585493,0.250851,0.213569,0.17822,0.177857]
new object=loadshape.res_kw_754_pu npts=24 interval=1 mult=[0.062979,0.0675652,0.0696967,0.074049,0.0781651,0.139337,0.0881887,0.228589,0.25966,0.198414,0.156049,0.150213,0.0784873,0.0669148,0.0567144,0.0527034,0.0944809,0.0902881,0.158611,0.0889776,0.123405,0.186642,0.197839,0.116136] qmult=[0.0964552,0.0975881,0.0871263,0.0901326,0.0929588,0.2673,0.100408,0.0918746,0.101008,0.101008,0.100808,0.268383,0.0909084,0.0833626,0.0767345,0.0740206,0.10774,0.127982,0.298291,0.0992133,0.102207,0.218471,0.224523,0.251271]
new object=loadshape.res_kw_670_pu npts=24 interval=1 mult=[0.135574,0.13578,0.144089,0.165538,0.314827,0.144836,0.258328,0.264352,0.159884,0.142123,0.121609,0.125152,0.121069,0.121588,0.132303,0.139608,0.152961,0.253502,0.178745,0.476521,0.235463,0.17631,0.162467,0.152605] qmult=[0.2762,0.276904,0.293626,0.287042,0.604982,0.294047,0.313208,0.319566,0.29977,0.278591,0.251251,0.246314,0.239696,0.240143,0.249857,0.250745,0.269621,0.456363,0.30502,0.639113,0.331534,0.308608,0.306573,0.302527]
new object=loadshape.res_kw_128_pu npts=24 interval=1 mult=[0.10455,0.0500504,0.050298,0.0526159,0.0504786,0.0512046,0.151354,0.155382,0.167358,0.0752879,0.165307,0.164786,0.151944,0.15183,0.15133,0.152556,0.141383,0.354997,0.157073,0.164551,0.0724345,0.16016,0.169384,0.146565] qmult=[0.30073,0.15601,0.155711,0.161851,0.155109,0.155134,0.420926,0.431191,0.468334,0.226531,0.467958,0.471762,0.437426,0.437415,0.435482,0.439025,0.405681,0.49596,0.431422,0.449001,0.201193,0.438798,0.457738,0.410048]
new object=loadshape.res_kw_879_pu npts=24 interval=1 mult=[0.0502095,0.0428534,0.0444983,0.0477136,0.04178,0.0426608,0.17952,0.32261,0.191668,0.166184,0.144304,0.165012,0.209927,0.0648201,0.0983566,0.0419935,0.0434593,0.044968,0.205271,0.146066,0.182807,0.179094,0.177455,0.0579587] qmult=[0.134658,0.118764,0.118666,0.129522,0.117763,0.117802,0.43621,0.451086,0.451974,0.425125,0.366495,0.426272,0.247551,0.14794,0.240051,0.11941,0.120405,0.121597,0.393935,0.197955,0.2246,0.416758,0.425005,0.137198]
new object=loadshape.res_kw_828_pu npts=24 interval=1 mult=[0.0875332,0.0858764,0.0840688,0.0900954,0.0858194,0.0882046,0.0988255,0.0993673,0.0778678,0.0728128,0.0778468,0.084934,0.124836,0.111486,0.0754003,0.217182,0.0936123,0.132233,0.124142,0.127284,0.147624,0.10372,0.100904,0.0879723] qmult=[0.222,0.2194,0.212684,0.227101,0.216914,0.221809,0.239808,0.239683,0.199636,0.189917,0.201839,0.211118,0.423546,0.222352,0.189737,0.183176,0.222022,0.290048,0.267682,0.263972,0.292413,0.239398,0.235491,0.219908]
new object=loadshape.res_kw_1037_pu npts=24 interval=1 mult=[0.0926868,0.0675342,0.141223,0.0801175,0.0877637,0.0975576,0.319978,0.123544,0.120475,0.114197,0.154271,0.171897,0.0571708,0.0645228,0.250304,0.317205,0.351452,0.369351,0.367009,0.372349,0.466479,0.170173,0.159215,0.10142] qmult=[0.15412,0.119297,0.230518,0.137726,0.153492,0.170968,0.484581,0.170056,0.167972,0.16014,0.220076,0.249571,0.10573,0.115145,0.400907,0.480127,0.537179,0.54617,0.509508,0.501708,0.573479,0.212101,0.202929,0.163708]
new object=loadshape.res_kw_1283_pu npts=24 interval=1 mult=[0.0976765,0.0911104,0.0919582,0.0924899,0.0926731,0.0941801,0.22971,0.115092,0.124156,0.260316,0.248194,0.227102,0.238105,0.375371,0.224342,0.22577,0.253976,0.165702,0.255064,0.181695,0.285511,0.272572,0.239266,0.212703] qmult=[0.239914,0.225948,0.227583,0.228773,0.229652,0.232119,0.255345,0.271764,0.289787,0.316316,0.53751,0.49905,0.548015,0.586943,0.493409,0.497363,0.55113,0.365941,0.524164,0.359651,0.568167,0.558581,0.501393,0.467273]
new object=loadshape.res_kw_1070_pu npts=24 interval=1 mult=[0.329425,0.340154,0.358819,0.373945,0.448921,0.73457,0.825202,0.54115,0.45691,0.452617,0.462711,0.427892,0.41835,0.2227,0.446563,0.331967,0.614309,0.846123,0.476325,0.455322,0.676624,0.539935,0.597754,0.393204] qmult=[0.613543,0.622796,0.640528,0.654711,0.989904,1.96746,2.02178,0.927528,1.6195,1.76865,1.77694,1.63097,1.56129,0.511899,1.5843,0.701436,0.723302,2.00861,1.18132,0.970382,1.94425,1.74775,1.78474,0.678569]
new object=loadshape.res_kw_1273_pu npts=24 interval=1 mult=[0.0750439,0.074102,0.0740472,0.0747392,0.0772319,0.0816413,0.0891099,0.145571,0.143439,0.165072,0.147137,0.158253,0.160756,0.141961,0.130979,0.125098,0.131384,0.119076,0.106674,0.121607,0.123332,0.093585,0.0895244,0.080601] qmult=[0.1992,0.197281,0.19688,0.198403,0.204794,0.21609,0.235328,0.314973,0.375091,0.432783,0.39653,0.391857,0.428311,0.379204,0.350149,0.334345,0.343607,0.307456,0.269781,0.291998,0.293156,0.236658,0.227346,0.21083]
new object=loadshape.res_kw_149_pu npts=24 interval=1 mult=[0.0762212,0.0792714,0.0751092,0.0753152,0.0754336,0.0770286,0.0791269,0.0803878,0.0823419,0.0714664,0.0699652,0.0654317,0.06342,0.0614586,0.0588714,0.057661,0.0614074,0.134981,0.155458,0.0734323,0.0784842,0.143438,0.130714,0.0762191] qmult=[0.16726,0.175031,0.164836,0.165009,0.165502,0.167919,0.171309,0.173781,0.183301,0.162521,0.158822,0.149603,0.146831,0.141963,0.136103,0.13298,0.140113,0.194246,0.199094,0.158936,0.167467,0.196738,0.186655,0.166116]
new object=loadshape.res_kw_658_pu npts=24 interval=1 mult=[0.502642,0.404221,0.427883,0.450235,0.471733,0.485391,0.500806,0.499475,0.594708,0.44058,0.395942,0.43942,0.319844,0.278661,0.22313,0.222676,0.440954,0.533215,0.549345,0.661686,0.695816,0.59908,0.556166,0.410826] qmult=[0.696247,0.177678,0.180882,0.183865,0.18671,0.189059,0.193477,0.195012,0.264426,0.185838,0.177209,0.672005,0.165817,0.158664,0.149031,0.148053,0.223688,0.257438,0.266583,0.294918,0.275101,0.231212,0.208338,0.180537]
new object=loadshape.res_kw_35_pu npts=24 interval=1 mult=[0.121793,0.120718,0.121937,0.107227,0.111177,0.115458,0.147877,0.157236,0.110509,0.105233,0.103217,0.099148,0.112322,0.105625,0.0843104,0.0845852,0.0898695,0.11868,0.181872,0.190118,0.188809,0.17548,0.13141,0.129589] qmult=[0.286215,0.284111,0.286505,0.253511,0.262636,0.271574,0.306985,0.31725,0.262589,0.253104,0.24806,0.238756,0.269068,0.253263,0.205002,0.205075,0.216409,0.281669,0.313959,0.312392,0.319195,0.318254,0.305047,0.302698]
new object=loadshape.res_kw_24_pu npts=24 interval=1 mult=[0.187757,0.182504,0.186007,0.187953,0.202317,0.191983,0.19546,0.244763,0.245164,0.224436,0.168568,0.216198,0.215729,0.217839,0.218819,0.224965,0.248665,0.262461,0.294956,0.389724,0.363062,0.264607,0.249786,0.192011] qmult=[0.293829,0.288726,0.292844,0.295244,0.322707,0.300017,0.303281,0.360988,0.365394,0.339828,0.273475,0.331325,0.333637,0.335642,0.33471,0.343253,0.354586,0.3802,0.408257,0.466863,0.451432,0.367592,0.350739,0.29717]
new object=loadshape.res_kw_1193_pu npts=24 interval=1 mult=[0.0612905,0.0582327,0.0580259,0.0658277,0.057911,0.0645848,0.0753679,0.0817949,0.123143,0.0766718,0.0768829,0.0956176,0.0519085,0.0534973,0.0513808,0.0502193,0.0532299,0.0907726,0.101887,0.111514,0.14252,0.127915,0.0909787,0.0760457] qmult=[0.156901,0.148926,0.14788,0.165351,0.147688,0.159081,0.169985,0.180274,0.206239,0.172372,0.173362,0.197618,0.139925,0.14243,0.137407,0.134633,0.141342,0.191547,0.200541,0.212055,0.232899,0.22845,0.18922,0.18087]
new object=loadshape.res_kw_968_pu npts=24 interval=1 mult=[0.105847,0.105154,0.105082,0.104782,0.10408,0.104946,0.134567,0.110124,0.127344,0.124854,0.107815,0.103644,0.165068,0.627272,0.124468,0.1261,0.186325,0.205678,0.254752,0.293084,0.275545,0.19425,0.132099,0.109365] qmult=[0.286225,0.28515,0.284078,0.283004,0.281929,0.281944,0.331626,0.286394,0.3229,0.322862,0.295003,0.286256,0.530869,0.660457,0.325813,0.328644,0.426309,0.462854,0.517188,0.54074,0.510368,0.410981,0.320188,0.28903]
new object=loadshape.res_kw_162_pu npts=24 interval=1 mult=[0.150874,0.146154,0.148425,0.144263,0.140638,0.157214,0.225441,0.21285,0.324016,0.308606,0.314889,0.29788,0.313468,0.257788,0.229605,0.506323,0.255821,0.278973,0.297601,0.551846,0.40489,0.360848,0.245927,0.204907] qmult=[0.301531,0.291244,0.294087,0.289737,0.285941,0.31975,0.40549,0.440906,0.622064,0.69247,0.707941,0.672202,0.699948,0.573165,0.508575,0.47554,0.456068,0.455845,0.439975,0.552038,0.472846,0.465418,0.378034,0.370236]
new object=loadshape.res_kw_707_pu npts=24 interval=1 mult=[0.0569975,0.0568189,0.0578941,0.0607824,0.0589988,0.0734775,0.0723651,0.167849,0.168562,0.144598,0.162405,0.047374,0.0629339,0.0635206,0.156768,0.0934818,0.0590686,0.11808,0.187825,0.0968937,0.0847718,0.0994741,0.0778678,0.0682477] qmult=[0.133434,0.133421,0.135679,0.144271,0.138522,0.169826,0.16652,0.347478,0.35055,0.31538,0.338498,0.114811,0.135463,0.136346,0.326992,0.186198,0.138737,0.237777,0.369964,0.175592,0.151736,0.191847,0.151794,0.150012]
new object=loadshape.res_kw_450_pu npts=24 interval=1 mult=[0.371756,0.316548,0.324898,0.0356061,0.109048,0.137958,0.213913,0.272824,0.296082,0.178773,0.190916,0.271073,0.447746,0.3606,0.231127,0.324979,0.221888,0.304267,0.306597,0.403649,0.464124,0.440883,0.471488,0.451591] qmult=[0.396176,0.189724,0.189047,0.18837,0.1935,0.187692,0.479911,0.556481,0.633065,0.561541,0.521065,0.523256,0.570984,0.570984,0.191756,0.191079,0.243867,0.263085,0.320602,0.596963,0.645124,0.573693,0.550423,0.532548]
new object=loadshape.res_kw_416_pu npts=24 interval=1 mult=[0.519518,0.506161,0.508712,0.389582,0.507054,0.470867,0.778757,0.756776,0.423072,0.432216,0.336477,0.429307,0.393529,0.347339,0.298447,0.281838,0.316844,0.482731,0.426453,0.464862,0.569301,0.52435,0.535718,0.540876] qmult=[0.164065,0.153261,0.15069,0.138309,0.414552,0.37927,0.412133,0.515448,0.188886,0.237535,0.227574,0.720104,0.24683,0.24683,0.242499,0.25101,0.267386,0.306138,0.242039,0.246991,0.406236,0.188211,0.214442,0.199035]
new object=loadshape.res_kw_1162_pu npts=24 interval=1 mult=[0.107082,0.0996241,0.0880233,0.170206,0.209485,0.216072,0.213559,0.247334,0.266894,0.206353,0.108164,0.208409,0.129674,0.110563,0.198423,0.441149,0.356212,0.126207,0.130986,0.246485,0.265405,0.1885,0.257638,0.116352] qmult=[0.244561,0.227021,0.204033,0.211859,0.210354,0.222745,0.450202,0.577815,0.469409,0.433369,0.23717,0.442998,0.286793,0.244331,0.420361,0.60505,0.401059,0.268131,0.280997,0.492608,0.517409,0.376776,0.508751,0.26156]
new object=loadshape.res_kw_689_pu npts=24 interval=1 mult=[0.0883004,0.0852057,0.097451,0.0953454,0.0991696,0.109853,0.126992,0.151465,0.195158,0.315376,0.305422,0.893919,0.315416,0.241248,0.190957,0.175011,0.214133,0.182533,0.195369,0.199983,0.190759,0.134549,0.12639,0.0945448] qmult=[0.230139,0.221881,0.2519,0.24523,0.251065,0.268337,0.296438,0.335834,0.403807,0.527271,0.601165,0.920079,0.497921,0.448998,0.371393,0.346077,0.313047,0.325939,0.322285,0.310334,0.306407,0.274571,0.265611,0.243513]
new object=loadshape.res_kw_898_pu npts=24 interval=1 mult=[0.336379,0.392958,0.341558,0.346608,0.351241,0.365751,0.469577,0.416726,0.33577,0.306721,0.281718,0.242721,0.232013,0.207386,0.207303,0.317709,0.221413,0.253853,0.420888,0.289009,0.432455,0.342662,0.38592,0.337979] qmult=[0.0957503,0.215189,0.0947762,0.0961161,0.146168,0.12194,0.157767,0.268372,0.229511,0.288157,0.295444,0.282645,0.281572,0.230408,0.205744,0.194654,0.162987,0.148778,0.154772,0.125804,0.116504,0.13156,0.233011,0.0981525]
new object=loadshape.res_kw_502_pu npts=24 interval=1 mult=[0.0367913,0.0380076,0.0394947,0.0468057,0.0411665,0.0520857,0.0439058,0.062886,0.0912949,0.0852308,0.0451691,0.0432327,0.041683,0.0403909,0.0391025,0.0389229,0.121052,0.0991516,0.113672,0.118934,0.114176,0.102355,0.0774034,0.0384662] qmult=[0.15025,0.154695,0.15924,0.185028,0.165165,0.202533,0.171907,0.232497,0.207751,0.261704,0.181343,0.174849,0.170602,0.165413,0.160493,0.159414,0.254571,0.279665,0.288469,0.278451,0.2725,0.268343,0.19976,0.15332]
new object=loadshape.res_kw_624_pu npts=24 interval=1 mult=[0.261654,0.271835,0.290696,0.385872,0.455285,0.341235,0.498073,0.317988,0.228384,0.193386,0.193864,0.180645,0.17383,0.178913,0.179246,0.178046,0.27634,0.354534,0.395424,0.350808,0.28053,0.276272,0.305398,0.315561] qmult=[0.199951,0.199235,0.198519,0.560507,0.576916,0.197087,0.205829,0.199951,0.216612,0.18934,0.188757,0.182077,0.180095,0.208649,0.232519,0.237162,0.295911,0.596338,0.658441,0.496219,0.283702,0.243665,0.245821,0.200667]
new object=loadshape.res_kw_26_pu npts=24 interval=1 mult=[0.385786,0.383388,0.396583,0.407923,0.438172,0.757119,0.459765,0.457469,0.537052,0.425886,0.459871,0.548662,0.529484,0.508577,0.389359,0.262752,0.301278,0.388137,0.54128,0.675754,0.617764,0.452845,0.440571,0.526501] qmult=[0.834765,0.831617,0.846936,0.859865,0.907372,1,0.982466,1.00617,1.84254,1.72833,1.87963,1.84318,1.84052,1.81786,1.83328,0.920404,0.981657,1.24683,1.98636,2.04756,2.45389,1.19357,1.05579,1.53816]
new object=loadshape.res_kw_923_pu npts=24 interval=1 mult=[0.509053,0.507431,0.523334,0.68747,0.652778,0.725295,0.747327,0.569034,0.554458,0.294257,0.431915,0.491001,0.48172,0.471891,0.380276,0.310573,0.397035,0.487859,0.469068,0.508782,0.489481,0.518016,0.532364,0.556414] qmult=[0.20157,0.192532,0.192166,0.210557,0.20571,0.5512,0.606119,0.234222,0.205869,0.20174,0.579612,0.590201,0.557601,0.556336,0.222523,0.259157,0.22013,0.376946,0.671099,0.599506,0.29352,0.291859,0.219639,0.218489]
new object=loadshape.res_kw_1209_pu npts=24 interval=1 mult=[0.0691066,0.0661329,0.0644778,0.0651337,0.0672321,0.0720605,0.0840385,0.0840541,0.203053,0.216195,0.0732348,0.228082,0.154088,0.0683336,0.0666566,0.0623421,0.100759,0.121663,0.137657,0.144851,0.212612,0.115369,0.106913,0.08309] qmult=[0.130195,0.127365,0.12387,0.125023,0.130247,0.133481,0.144809,0.139787,0.371704,0.376427,0.122,0.380768,0.24817,0.111112,0.111287,0.10255,0.119556,0.136419,0.141699,0.139975,0.294827,0.14724,0.141967,0.138827]
new object=loadshape.res_kw_1223_pu npts=24 interval=1 mult=[0.189417,0.177686,0.178837,0.180311,0.18382,0.191523,0.20067,0.202834,0.180418,0.162702,0.159204,0.149956,0.147422,0.143359,0.133985,0.129562,0.140799,0.190599,0.185141,0.196177,0.213108,0.218363,0.215346,0.213894] qmult=[0.274348,0.254937,0.255637,0.256777,0.261449,0.272228,0.286392,0.290909,0.260684,0.236445,0.23159,0.219015,0.215922,0.210398,0.197652,0.19154,0.209409,0.281816,0.27442,0.290449,0.313982,0.321639,0.315351,0.311091]
new object=loadshape.res_kw_436_pu npts=24 interval=1 mult=[0.448135,0.441989,0.447245,0.453488,0.460413,0.465885,0.46965,0.429366,0.551544,0.48764,0.427968,0.280794,0.256287,0.266464,0.314782,0.55373,0.40618,0.573172,0.970752,0.490306,0.710825,0.570448,0.552438,0.581942] qmult=[0.231411,0.222704,0.221267,0.219915,0.220506,0.221677,0.225654,0.526519,0.579995,0.613101,0.556333,0.296788,0.626254,0.648774,0.563046,0.594784,0.686328,0.719921,1.09609,0.720983,0.727688,0.699387,0.55707,0.580213]
new object=loadshape.res_kw_931_pu npts=24 interval=1 mult=[0.136427,0.142405,0.134548,0.133898,0.376524,0.153165,0.482392,0.194539,0.165161,0.192055,0.160556,0.159574,0.131467,0.141371,0.131009,0.161391,0.510057,0.231035,0.557361,0.55509,0.297016,0.321727,0.266562,0.156595] qmult=[0.356603,0.368975,0.350478,0.34742,0.344343,0.382725,0.407641,0.437298,0.402337,0.444977,0.399222,0.401544,0.362645,0.383213,0.362602,0.409263,0.477596,0.508733,0.51956,0.558459,0.534314,0.550759,0.460532,0.39039]
new object=loadshape.res_kw_236_pu npts=24 interval=1 mult=[0.420919,0.425691,0.464401,0.494278,0.517165,0.569905,0.597776,0.531966,0.316621,0.268343,0.295292,0.294316,0.289141,0.266758,0.305038,0.22572,0.304167,0.298603,0.346579,0.385739,0.671107,0.50223,0.528438,0.570562] qmult=[0.34918,0.347091,0.345001,0.342912,0.340822,0.340822,0.345001,0.34918,0.35127,0.31938,0.34186,0.338389,0.336189,0.314956,0.368318,0.27527,0.574577,0.357939,0.370075,0.365896,0.387696,0.361717,0.357538,0.356479]
new object=loadshape.res_kw_807_pu npts=24 interval=1 mult=[0.0636683,0.0598308,0.0600397,0.0958658,0.23659,0.211,0.224893,0.226924,0.226403,0.261089,0.23317,0.213442,0.206369,0.214595,0.213351,0.204324,0.249295,0.282824,0.251245,0.0974331,0.233947,0.0815671,0.0741313,0.202952] qmult=[0.14682,0.138277,0.13765,0.337261,0.449481,0.464355,0.480778,0.484134,0.485979,0.50094,0.500456,0.469779,0.454802,0.473056,0.471479,0.455257,0.50949,0.541537,0.521356,0.191967,0.482994,0.171681,0.156369,0.438758]
new object=loadshape.res_kw_1108_pu npts=24 interval=1 mult=[0.156667,0.167516,0.181554,0.294546,0.38215,0.181899,0.215331,0.256448,0.371129,0.241619,0.259384,0.329881,0.612076,0.358736,0.258538,0.287407,0.262765,0.331752,0.185347,0.17165,0.327694,0.429864,0.319131,0.21544] qmult=[0.155142,0.161127,0.169169,0.233613,0.52214,0.192441,0.234616,0.299349,0.674912,0.439756,0.534167,0.678704,0.931664,0.674878,0.483596,0.5733,0.388202,0.532776,0.282854,0.173241,0.483209,0.382873,0.480117,0.195162]
new object=loadshape.res_kw_401_pu npts=24 interval=1 mult=[0.0948779,0.101687,0.109441,0.114767,0.118787,0.304439,0.366943,0.116831,0.0610889,0.0621376,0.0567678,0.0391722,0.0403097,0.0370203,0.0347518,0.298455,0.221742,0.181302,0.278479,0.212075,0.0499319,0.0683389,0.0979733,0.109199] qmult=[0.111866,0.0950103,0.0946412,0.0942721,0.093903,0.107145,0.114374,0.123225,0.0957485,0.0957485,0.0953794,0.0953794,0.0961176,0.0961176,0.127209,0.454155,0.140751,0.0983322,0.153184,0.13916,0.133923,0.130308,0.121456,0.113858]
new object=loadshape.res_kw_843_pu npts=24 interval=1 mult=[0.236685,0.0976158,0.0978467,0.0979152,0.09838,0.264101,0.120013,0.128858,0.115167,0.130912,0.255474,0.284804,0.147539,0.145164,0.141513,0.282907,0.165036,0.188719,0.334395,0.336627,0.196295,0.184992,0.144058,0.115792] qmult=[0.550047,0.262523,0.262357,0.261997,0.263163,0.263114,0.30701,0.327042,0.302573,0.335078,0.590826,0.654368,0.376154,0.37083,0.360394,0.653014,0.411507,0.455539,0.737312,0.72507,0.43792,0.429265,0.353006,0.305364]
new object=loadshape.res_kw_280_pu npts=24 interval=1 mult=[0.111325,0.10466,0.105863,0.106592,0.109822,0.110067,0.13066,0.138932,0.133605,0.129476,0.126088,0.119053,0.120569,0.113165,0.109815,0.0851059,0.0897904,0.17626,0.200987,0.210873,0.20482,0.151376,0.144063,0.113728] qmult=[0.289822,0.273419,0.275927,0.277753,0.289403,0.285794,0.306833,0.318301,0.309378,0.303105,0.295369,0.280187,0.288015,0.267573,0.257259,0.228987,0.238363,0.333832,0.346808,0.341147,0.339701,0.313423,0.307751,0.290835]
new object=loadshape.res_kw_504_pu npts=24 interval=1 mult=[0.0523998,0.0529054,0.053853,0.0545104,0.0548092,0.0689139,0.057925,0.0593103,0.0557436,0.117278,0.0535747,0.0465138,0.0456841,0.0473471,0.0429175,0.0685975,0.0983298,0.0887318,0.101877,0.112635,0.10983,0.0996355,0.0607079,0.109142] qmult=[0.115573,0.117214,0.11904,0.120509,0.121723,0.145254,0.125993,0.128143,0.12406,0.128926,0.121875,0.107057,0.105846,0.109207,0.098439,0.119754,0.124133,0.137958,0.143113,0.15176,0.152149,0.150663,0.128641,0.141197]
new object=loadshape.res_kw_282_pu npts=24 interval=1 mult=[0.443869,0.397599,0.386628,0.38796,0.461959,0.398413,0.559614,0.503085,0.411757,0.442767,0.543375,0.484184,0.505706,0.460503,0.480915,0.52218,0.545651,0.657098,0.744232,0.849716,0.816488,0.612077,0.570658,0.507797] qmult=[0.696359,0.625756,0.603065,0.603553,0.692952,0.609571,0.660362,0.715221,0.651925,0.673287,0.734698,0.691686,0.712632,0.675609,0.682419,0.713014,0.754376,0.861552,0.914607,0.950105,0.979682,0.856288,0.806668,0.771629]
new object=loadshape.res_kw_561_pu npts=24 interval=1 mult=[0.307401,0.317991,0.36164,0.394454,0.418585,0.513262,0.508998,0.303658,0.234796,0.215701,0.256093,0.202866,0.195306,0.318986,0.733118,0.232482,0.233513,0.296954,0.450719,0.356625,0.497379,0.445656,0.980801,0.469115] qmult=[0.194395,0.193697,0.192998,0.192299,0.191601,0.198481,0.192998,0.205525,0.206872,0.195678,0.278191,0.195608,0.193512,0.784497,0.811804,0.201699,0.204692,0.2176,0.564295,0.232621,0.228031,0.566626,0.923961,0.202332]
new object=loadshape.res_kw_822_pu npts=24 interval=1 mult=[0.105655,0.104968,0.106026,0.106955,0.110142,0.140348,0.140953,0.137436,0.132794,0.126683,0.642534,0.156913,0.147893,0.129297,0.113218,0.129061,0.136923,0.197455,0.193814,0.215296,0.193589,0.147052,0.123983,0.11046] qmult=[0.221594,0.220798,0.222671,0.224483,0.232906,0.252533,0.273177,0.268188,0.261128,0.251128,0.61665,0.270856,0.256609,0.254884,0.228245,0.252842,0.262642,0.297246,0.325019,0.314987,0.312674,0.270248,0.241738,0.228694]
new object=loadshape.res_kw_825_pu npts=24 interval=1 mult=[0.0935356,0.0947463,0.0956024,0.0961887,0.0965068,0.292157,0.153989,0.11278,0.108931,0.128576,0.28507,0.0936153,0.102588,0.0906301,0.275906,0.0981485,0.102463,0.222858,0.314644,0.342547,0.317233,0.253601,0.31047,0.105173] qmult=[0.214959,0.216761,0.217666,0.218203,0.218472,0.564867,0.316353,0.243441,0.238278,0.268082,0.55554,0.216536,0.234711,0.21225,0.540252,0.221539,0.228914,0.432196,0.596541,0.622512,0.595314,0.488019,0.588662,0.234562]
new object=loadshape.res_kw_947_pu npts=24 interval=1 mult=[0.456673,0.348788,0.374916,0.396974,0.416435,0.543401,0.519294,0.574618,0.490211,0.410978,0.376002,0.346602,0.240522,0.222186,0.198998,0.183549,0.191453,0.265243,0.263234,0.32556,0.507136,0.507731,0.531355,0.606051] qmult=[0.460649,0.214713,0.214111,0.21351,0.212908,0.490165,0.507016,0.527779,0.461251,0.461251,0.460649,0.453561,0.217219,0.199756,0.189675,0.182678,0.187739,0.22666,0.221333,0.318183,0.551552,0.543126,0.522363,0.467411]
new object=loadshape.res_kw_1041_pu npts=24 interval=1 mult=[0.181017,0.1753,0.176147,0.18045,0.192031,0.211404,0.240875,0.279582,0.351963,0.422879,0.433168,0.40879,0.404848,0.327396,0.279978,0.258303,0.196599,0.191404,0.179099,0.175144,0.186838,0.198781,0.183246,0.183243] qmult=[0.224151,0.21726,0.217823,0.223197,0.239491,0.267686,0.311686,0.37237,0.490369,0.60365,0.620246,0.587252,0.582687,0.46818,0.401055,0.365852,0.273533,0.256835,0.234807,0.225094,0.234434,0.248915,0.228275,0.227077]
new object=loadshape.res_kw_985_pu npts=24 interval=1 mult=[0.196813,0.0589427,0.0584603,0.0579687,0.0580218,0.204842,0.214637,0.234012,0.0886053,0.0878555,0.0875733,0.204662,0.100723,0.142734,0.0727048,0.0738621,0.261637,0.299151,0.247689,0.247412,0.243686,0.238463,0.094059,0.0650705] qmult=[0.325774,0.118911,0.117714,0.116518,0.116496,0.341238,0.354727,0.346959,0.17208,0.17183,0.171802,0.34844,0.153713,0.252853,0.148288,0.151026,0.404781,0.463716,0.411527,0.405055,0.397677,0.393054,0.174435,0.129314]
new object=loadshape.res_kw_182_pu npts=24 interval=1 mult=[0.0612111,0.0608907,0.063898,0.0604292,0.0601088,0.0602164,0.0719722,0.209046,0.219027,0.235162,0.234728,0.264132,0.219911,0.222431,0.219479,0.220833,0.082179,0.0633799,0.205709,0.205427,0.275186,0.123388,0.0940315,0.213251] qmult=[0.152255,0.1517,0.157494,0.150589,0.150033,0.150033,0.172364,0.405078,0.423041,0.454731,0.454176,0.457666,0.427086,0.431849,0.425341,0.428276,0.194892,0.156698,0.396349,0.395239,0.510694,0.261128,0.207387,0.41221]
new object=loadshape.res_kw_407_pu npts=24 interval=1 mult=[0.158589,0.155063,0.157805,0.164064,0.160716,0.168311,0.174306,0.205988,0.214495,0.197093,0.216298,0.180544,0.176256,0.147556,0.138579,0.134316,0.14591,0.199037,0.473335,0.28415,0.28694,0.268653,0.156012,0.163317] qmult=[0.351277,0.349035,0.357293,0.37038,0.362864,0.378697,0.389813,0.459988,0.444344,0.408293,0.411652,0.373616,0.366634,0.33702,0.31556,0.305269,0.330223,0.383494,0.43113,0.438868,0.460136,0.462268,0.343613,0.362986]
new object=loadshape.res_kw_752_pu npts=24 interval=1 mult=[0.25756,0.320807,0.268127,0.275033,0.281603,0.296831,0.425355,0.302753,0.24574,0.196897,0.188666,0.200674,0.217348,0.15671,0.258101,0.284501,0.302395,0.203309,0.355338,0.403613,0.425608,0.29287,0.295548,0.287231] qmult=[0.204966,0.235383,0.208197,0.210524,0.212692,0.220149,0.27355,0.226738,0.202161,0.181018,0.197519,0.186728,0.341206,0.187791,0.415083,0.45152,0.478216,0.187871,0.504069,0.58145,0.583429,0.26939,0.257371,0.221338]
new object=loadshape.res_kw_1138_pu npts=24 interval=1 mult=[0.376684,0.384705,0.415553,0.544753,0.585584,0.502112,0.724213,0.404613,0.279374,0.217056,0.21257,0.343328,0.338271,0.250167,0.167387,0.281465,0.431862,0.405676,0.298444,0.47397,0.428653,0.43188,0.437731,0.487079] qmult=[0.372713,0.372022,0.371331,0.902314,0.957825,0.416765,0.710347,1.03068,0.597314,0.37474,0.370074,0.954524,0.952966,0.616453,0.331393,0.531282,1.08041,0.99275,0.478346,1.12894,0.665575,0.514575,0.408232,0.373403]
new object=loadshape.res_kw_944_pu npts=24 interval=1 mult=[0.0655811,0.0600678,0.0606363,0.0624513,0.0625653,0.25731,0.0766402,0.0812709,0.168259,0.0915323,0.136933,0.0523374,0.0518724,0.21245,0.0519367,0.0698881,0.0853197,0.305038,0.212103,0.32643,0.231632,0.214264,0.124226,0.0641131] qmult=[0.160165,0.15041,0.151501,0.157881,0.158781,0.625352,0.167254,0.171595,0.357896,0.172437,0.313992,0.136495,0.136194,0.501123,0.134108,0.15033,0.182316,0.359518,0.189414,0.651917,0.495095,0.469182,0.259014,0.156128]
new object=loadshape.res_kw_627_pu npts=24 interval=1 mult=[0.0632925,0.0665923,0.0804892,0.0748976,0.0726634,0.220052,0.126892,0.0732194,0.21341,0.0838116,0.0847802,0.085242,0.0849204,0.188701,0.0820472,0.0819206,0.106862,0.111885,0.135186,0.142592,0.156993,0.177905,0.087547,0.0663066] qmult=[0.132674,0.141016,0.162658,0.153014,0.149646,0.422327,0.234379,0.148161,0.412431,0.155396,0.157363,0.159401,0.160712,0.352554,0.153731,0.152789,0.154032,0.154632,0.182286,0.178228,0.211532,0.306599,0.173902,0.135725]
new object=loadshape.res_kw_421_pu npts=24 interval=1 mult=[0.0928329,0.0932869,0.0952373,0.0973919,0.10307,0.108653,0.11865,0.129998,0.164022,0.195709,0.166667,0.176098,0.205884,0.367154,0.185426,0.601049,0.0987364,0.120689,0.167112,0.138313,0.143451,0.132158,0.110352,0.103118] qmult=[0.309655,0.311728,0.317785,0.325198,0.348249,0.365772,0.400935,0.444357,0.574153,0.669571,0.604402,0.609335,0.642092,0.536697,0.72657,0.810553,0.344741,0.369218,0.444361,0.390445,0.409501,0.387251,0.361135,0.329867]
new object=loadshape.res_kw_39_pu npts=24 interval=1 mult=[0.103681,0.103251,0.10411,0.104454,0.120228,0.1231,0.191346,0.125339,0.119486,0.290431,0.110256,0.174617,0.103986,0.102426,0.100076,0.0997462,0.105363,0.116922,0.314812,0.55572,0.282099,0.376953,0.375946,0.374233] qmult=[0.242787,0.242816,0.243847,0.244387,0.274427,0.281799,0.344444,0.283105,0.278818,0.66681,0.265779,0.409658,0.255283,0.250549,0.244814,0.243183,0.252032,0.269215,0.451342,0.942847,0.35432,0.839147,0.840779,0.840083]
new object=loadshape.res_kw_1160_pu npts=24 interval=1 mult=[0.0563526,0.0937444,0.0820912,0.190699,0.0557102,0.0561238,0.142638,0.118019,0.217533,0.0816678,0.0814389,0.0814572,0.172212,0.0833474,0.105425,0.0844876,0.0891952,0.442049,0.318525,0.455074,0.283151,0.232133,0.251264,0.192382] qmult=[0.15702,0.200205,0.190283,0.458415,0.155619,0.155627,0.341298,0.285169,0.511951,0.209477,0.209131,0.21199,0.417817,0.221558,0.270076,0.224056,0.230868,0.632326,0.328261,0.61277,0.59523,0.500457,0.547967,0.459837]
new object=loadshape.res_kw_1013_pu npts=24 interval=1 mult=[0.0978178,0.0939103,0.0970185,0.0990928,0.0999906,0.109586,0.201676,0.145057,0.171331,0.181944,0.545426,0.129285,0.107369,0.104761,0.119402,0.124593,0.149405,0.313033,0.279379,0.298611,0.307554,0.617158,0.116037,0.108387] qmult=[0.211347,0.207717,0.214893,0.220385,0.224601,0.23892,0.274713,0.266727,0.372891,0.39327,0.515739,0.245305,0.223333,0.214546,0.220192,0.229589,0.31215,0.35679,0.330266,0.325222,0.431287,0.550192,0.24393,0.219749]
new object=loadshape.res_kw_1228_pu npts=24 interval=1 mult=[0.134086,0.124718,0.126116,0.126347,0.126722,0.155252,0.177675,0.19405,0.164131,0.17413,0.140371,0.137319,0.134744,0.133343,0.148223,0.148296,0.194508,0.240747,0.295415,0.302378,0.268781,0.251503,0.183283,0.147041] qmult=[0.3037,0.283418,0.28568,0.286047,0.287907,0.321581,0.361643,0.387354,0.352104,0.36433,0.319684,0.313381,0.308816,0.304604,0.324087,0.323873,0.389776,0.446281,0.493654,0.476749,0.44956,0.427885,0.360661,0.32243]
new object=loadshape.res_kw_225_pu npts=24 interval=1 mult=[0.186817,0.187332,0.199743,0.192661,0.198786,0.420395,0.542117,0.560732,0.662819,0.692375,0.643088,0.680888,0.527531,0.686436,0.414714,0.593037,0.557031,0.68302,0.590425,0.573411,0.52806,0.210456,0.475768,0.19347] qmult=[0.244344,0.245721,0.264715,0.251943,0.261462,0.505103,0.61446,0.652025,0.769471,0.820992,0.790591,0.814232,0.651294,0.7651,0.473484,0.688461,0.584883,0.708602,0.596641,0.577182,0.557243,0.261089,0.521445,0.248317]
new object=loadshape.res_kw_626_pu npts=24 interval=1 mult=[0.133769,0.133479,0.172969,0.167445,0.17444,0.19451,0.268704,0.459833,0.454451,0.49833,0.478114,0.457759,0.45334,0.345119,0.305294,0.303448,0.291528,0.260564,0.269375,0.269536,0.312899,0.239288,0.295263,0.360379] qmult=[0.291114,0.291907,0.374442,0.36118,0.36955,0.396448,0.477965,0.580054,0.709909,0.767126,0.749443,0.720211,0.716013,0.574437,0.51806,0.508997,0.483952,0.41126,0.401758,0.38184,0.414404,0.383048,0.321987,0.297301]
new object=loadshape.res_kw_141_pu npts=24 interval=1 mult=[0.263508,0.199894,0.205125,0.214046,0.230349,0.275646,0.277942,0.285248,0.258842,0.269164,0.28541,0.259271,0.208409,0.275254,0.265096,0.206892,0.272215,0.347127,0.326643,0.330646,0.450409,0.394843,0.251462,0.248729] qmult=[0.366826,0.294427,0.296939,0.309618,0.336245,0.388694,0.375658,0.369633,0.338009,0.290407,0.37125,0.340225,0.279649,0.339766,0.32624,0.312506,0.413765,0.460754,0.397936,0.387258,0.47277,0.435146,0.349091,0.34775]
new object=loadshape.res_kw_362_pu npts=24 interval=1 mult=[0.112358,0.107868,0.106614,0.101844,0.098462,0.099047,0.122271,0.127684,0.115711,0.0768938,0.0999317,0.0972579,0.100069,0.140306,0.481171,0.125575,0.114445,0.242083,0.19836,0.204752,0.200068,0.183195,0.135446,0.119351] qmult=[0.274136,0.267162,0.265356,0.254354,0.242696,0.24327,0.278302,0.286184,0.26223,0.199859,0.23037,0.226587,0.235067,0.444736,0.483853,0.272059,0.259342,0.286973,0.368444,0.358968,0.356413,0.348535,0.286612,0.27882]
new object=loadshape.res_kw_339_pu npts=24 interval=1 mult=[0.285605,0.278254,0.277833,0.348873,0.451235,0.360707,0.363163,0.387833,0.752497,0.678701,0.282815,0.246242,0.273198,0.264465,0.243377,0.24787,0.348576,0.282133,0.35425,0.345126,0.380206,0.399538,0.402111,0.345082] qmult=[0.156526,0.150161,0.148523,0.416346,0.422929,0.433461,0.44997,0.497894,0.818484,0.776192,0.502857,0.507819,0.446859,0.446859,0.476899,0.448266,0.5017,0.51347,0.520333,0.512137,0.503077,0.463977,0.451596,0.294169]
new object=loadshape.res_kw_206_pu npts=24 interval=1 mult=[0.108336,0.108136,0.105777,0.108338,0.126449,0.135062,0.251458,0.160272,0.280908,0.136953,0.130547,0.141784,0.100713,0.113515,0.115908,0.136329,0.18188,0.227247,0.249371,0.241506,0.227386,0.146561,0.114455,0.113057] qmult=[0.259291,0.25605,0.252549,0.255842,0.288178,0.297778,0.338599,0.343516,0.415191,0.308518,0.297052,0.316781,0.24472,0.264724,0.263774,0.293599,0.359357,0.433678,0.456803,0.417516,0.398665,0.311407,0.269681,0.268107]
new object=loadshape.res_kw_740_pu npts=24 interval=1 mult=[0.288169,0.25329,0.267789,0.226473,0.252027,0.353523,0.287069,0.462125,0.227531,0.187732,0.171916,0.153888,0.258851,0.151811,0.295751,0.241325,0.326947,0.220679,0.295881,0.331462,0.28649,0.346566,0.304467,0.360778] qmult=[0.262702,0.189017,0.188398,0.191658,0.20982,0.397612,0.226816,0.387839,0.221402,0.214285,0.207978,0.202512,0.399675,0.200373,0.295912,0.393689,0.203936,0.289931,0.435036,0.494345,0.385509,0.417946,0.4092,0.402463]
new object=loadshape.res_kw_616_pu npts=24 interval=1 mult=[0.113531,0.113248,0.116876,0.110644,0.11281,0.117872,0.134815,0.167707,0.137104,0.168815,0.130754,0.153186,0.162558,0.687698,0.354995,0.136134,0.182202,0.218561,0.238613,0.266401,0.758082,0.197244,0.154609,0.133478] qmult=[0.272424,0.273678,0.278986,0.263453,0.270916,0.277705,0.301141,0.353771,0.305853,0.33183,0.300731,0.336809,0.354569,0.639886,0.477543,0.307586,0.37071,0.433166,0.442074,0.535544,0.698655,0.380619,0.323972,0.303947]
new object=loadshape.res_kw_894_pu npts=24 interval=1 mult=[0.0615712,0.059991,0.0665161,0.0605883,0.0608813,0.17921,0.271093,0.120922,0.102059,0.104355,0.103871,0.0633541,0.0554174,0.0548964,0.170189,0.101125,0.0723168,0.0722908,0.0747447,0.0767388,0.284316,0.131879,0.123083,0.0924063] qmult=[0.138865,0.134725,0.147481,0.134978,0.13583,0.353573,0.502335,0.207013,0.170401,0.17456,0.17522,0.145181,0.129549,0.127903,0.347314,0.173583,0.160542,0.160025,0.164153,0.167411,0.454439,0.192518,0.186272,0.178918]
new object=loadshape.res_kw_1148_pu npts=24 interval=1 mult=[0.0932334,0.0869011,0.085633,0.0840233,0.0829186,0.0844185,0.0893457,0.0930106,0.262278,0.202193,0.200058,0.198794,0.205719,0.199154,0.143643,0.15288,0.534762,0.33405,0.328804,0.349001,0.329914,0.286908,0.179517,0.133435] qmult=[0.267868,0.249672,0.245192,0.240712,0.240267,0.24188,0.25084,0.258993,0.527806,0.388571,0.388588,0.396046,0.427522,0.406128,0.330607,0.352886,0.445201,0.535344,0.515751,0.502186,0.485839,0.473706,0.360306,0.332407]
new object=loadshape.res_kw_842_pu npts=24 interval=1 mult=[0.0957799,0.100211,0.096901,0.0977621,0.175157,0.206581,0.268314,0.239853,0.221978,0.106951,0.106257,0.375883,0.23673,0.101722,0.0990225,0.15743,0.1505,0.287811,0.42054,0.36754,0.308028,0.216639,0.161924,0.102016] qmult=[0.204545,0.215013,0.207465,0.209376,0.360718,0.411807,0.507445,0.478945,0.447975,0.211187,0.210125,0.46927,0.204467,0.202859,0.195898,0.306668,0.235507,0.513337,0.517205,0.540025,0.515334,0.363932,0.298302,0.214182]
new object=loadshape.res_kw_101_pu npts=24 interval=1 mult=[0.155372,0.153172,0.135886,0.139549,0.27037,0.147464,0.295309,0.304069,0.177346,0.286933,0.283365,0.308957,0.290952,0.286369,0.294993,0.299492,0.304714,0.283117,0.902189,0.392095,0.45066,0.37149,0.299183,0.294661] qmult=[0.279476,0.276503,0.249851,0.255039,0.439665,0.265984,0.475332,0.488926,0.310169,0.466005,0.460735,0.501441,0.475346,0.467944,0.480407,0.48815,0.499136,0.463491,0.941804,0.589715,0.590626,0.572296,0.477394,0.476258]
new object=loadshape.res_kw_852_pu npts=24 interval=1 mult=[0.411065,0.414184,0.225847,0.278224,0.457644,0.382245,0.365008,0.359547,0.404685,0.252842,0.240107,0.41856,0.348825,0.425903,0.32469,0.318497,0.330964,0.424668,0.499323,0.401926,0.43307,0.442097,0.484622,0.558514] qmult=[0.122421,0.121733,0.121045,0.120357,0.434522,0.325669,0.152019,0.166131,0.531773,0.228254,0.191807,0.196016,0.149472,0.390089,0.172601,0.177008,0.184166,0.211561,0.509147,0.192011,0.183682,0.1779,0.253361,0.413597]
new object=loadshape.res_kw_1112_pu npts=24 interval=1 mult=[0.0883272,0.0734123,0.072975,0.072276,0.0710532,0.0718387,0.074546,0.0764678,0.0735014,0.118737,0.117538,0.117169,0.143043,0.118291,0.118478,0.15225,0.186695,0.152007,0.0850295,0.272514,0.255074,0.158315,0.137034,0.102619] qmult=[0.266746,0.23192,0.230113,0.228307,0.2265,0.2265,0.230113,0.233727,0.235534,0.294552,0.292745,0.295995,0.318294,0.302859,0.299609,0.304301,0.391489,0.336449,0.251797,0.411716,0.39041,0.32938,0.290223,0.275169]
...